Version 4
SHEET 1 884 680
WIRE -224 112 -448 112
WIRE 416 112 -224 112
WIRE -448 240 -448 112
WIRE 112 288 16 288
WIRE 416 288 416 112
WIRE 480 288 416 288
WIRE 768 288 720 288
WIRE -224 320 -224 112
WIRE -176 320 -224 320
WIRE 112 320 112 288
WIRE 112 320 16 320
WIRE 480 320 432 320
WIRE 768 320 768 288
WIRE 768 320 720 320
WIRE 880 320 768 320
WIRE -176 352 -320 352
WIRE 112 352 112 320
WIRE 480 352 112 352
WIRE 432 464 432 320
FLAG -448 320 GND
FLAG -320 432 GND
FLAG 432 544 GND
SYMBOL 1umcontrol -80 304 R0
SYMATTR InstName X1
SYMBOL 1umiv_conv 592 304 R0
SYMATTR InstName X2
SYMBOL voltage -320 336 R0
WINDOW 123 0 0 Left 0
WINDOW 39 0 0 Left 0
SYMATTR InstName V1
SYMATTR Value 2.5
SYMBOL voltage -448 224 R0
WINDOW 123 0 0 Left 0
WINDOW 39 0 0 Left 0
SYMATTR InstName V2
SYMATTR Value 5
SYMBOL voltage 432 448 R0
WINDOW 123 0 0 Left 0
WINDOW 39 0 0 Left 0
SYMATTR InstName V3
SYMATTR Value 2.5
TEXT 100 680 Left 0 !.model NMOS NMOS\n.model PMOS PMOS\n.include "./models/OR1_mos"\n.op\n.backanno\n