Version 4
SHEET 1 880 680
WIRE 144 32 80 32
WIRE 256 32 224 32
WIRE 432 80 144 80
WIRE -32 112 -112 112
WIRE 64 112 48 112
WIRE 80 112 80 32
WIRE 80 112 64 112
WIRE 96 112 80 112
WIRE 144 112 144 80
WIRE -112 144 -112 112
WIRE 256 144 256 32
WIRE 256 144 208 144
WIRE 288 144 256 144
WIRE 96 176 80 176
WIRE 432 192 432 160
WIRE 432 192 320 192
WIRE 432 240 432 192
WIRE -112 256 -112 224
WIRE 80 256 80 176
WIRE 80 256 -112 256
WIRE 320 256 320 192
WIRE 320 256 80 256
WIRE 432 336 432 320
FLAG 432 336 0
FLAG 288 144 out
FLAG 64 112 n004
FLAG 80 176 n001
SYMBOL Opamp3ureiauto 176 144 R0
SYMATTR InstName X1
SYMBOL res 64 96 R90
WINDOW 0 0 56 VBottom 2
WINDOW 3 32 56 VTop 2
SYMATTR InstName R1
SYMATTR Value 10k
SYMBOL res 240 16 R90
WINDOW 0 0 56 VBottom 2
WINDOW 3 32 56 VTop 2
SYMATTR InstName R2
SYMATTR Value 100k
SYMBOL voltage -112 128 R0
WINDOW 123 24 124 Left 2
WINDOW 39 0 0 Left 2
SYMATTR Value2 AC 1
SYMATTR InstName V1
SYMATTR Value SINE(0 0.1 1k)
SYMBOL voltage 432 64 R0
SYMATTR InstName V2
SYMATTR Value 3
SYMBOL voltage 432 224 R0
SYMATTR InstName V3
SYMATTR Value 3
TEXT -96 304 Left 2 !.include models/OR1_mos
TEXT -144 360 Left 2 !.ac dec 10 1 1G
